$ -------------------------------------------------------------------- $
$ WAVEWATCH III Initial conditions input file                          $
$--------------------------------------------------------------------- $
    5
$ -------------------------------------------------------------------- $
$ End of input file                                                    $
$ -------------------------------------------------------------------- $
